
     RDKit          3D

 36 38  0  0  0  0  0  0  0  0999 V2000
   -0.6390   -0.3870    4.2996 C   0  0  0  0  0  0  0  0  0  0  0  0
   -0.8967    0.7713    3.3626 C   0  0  0  0  0  0  0  0  0  0  0  0
   -0.1512    0.5229    2.1091 C   0  0  0  0  0  0  0  0  0  0  0  0
    0.5375   -0.5172    1.9872 O   0  0  0  0  0  0  0  0  0  0  0  0
   -0.1710    1.4225    1.0011 N   0  0  0  0  0  0  0  0  0  0  0  0
    0.5504    1.1732   -0.2005 C   0  0  0  0  0  0  0  0  0  0  0  0
   -0.0525    0.4746   -1.2350 C   0  0  0  0  0  0  0  0  0  0  0  0
    0.6419    0.2249   -2.4137 C   0  0  0  0  0  0  0  0  0  0  0  0
    0.0048   -0.4940   -3.4630 N   0  0  0  0  0  0  0  0  0  0  0  0
   -1.3259   -0.9700   -3.3491 C   0  0  0  0  0  0  0  0  0  0  0  0
   -1.5371   -2.2270   -2.8352 C   0  0  0  0  0  0  0  0  0  0  0  0
   -0.2219   -3.2564   -2.3183 Cl  0  0  0  0  0  0  0  0  0  0  0  0
   -2.8287   -2.7345   -2.7056 C   0  0  0  0  0  0  0  0  0  0  0  0
   -3.8759   -1.9344   -3.1090 C   0  0  0  0  0  0  0  0  0  0  0  0
   -3.7030   -0.6675   -3.6295 C   0  0  0  0  0  0  0  0  0  0  0  0
   -2.3906   -0.1928   -3.7441 C   0  0  0  0  0  0  0  0  0  0  0  0
   -2.5208    1.0810   -4.2871 O   0  0  0  0  0  0  0  0  0  0  0  0
   -3.7873    1.1801   -4.9421 C   0  0  0  0  0  0  0  0  0  0  0  0
   -4.5750    0.3255   -4.1027 O   0  0  0  0  0  0  0  0  0  0  0  0
    1.9357    0.6686   -2.5669 C   0  0  0  0  0  0  0  0  0  0  0  0
    2.5163    1.3613   -1.5260 C   0  0  0  0  0  0  0  0  0  0  0  0
    1.8152    1.5837   -0.4025 N   0  0  0  0  0  0  0  0  0  0  0  0
   -1.0666   -1.2961    3.7836 H   0  0  0  0  0  0  0  0  0  0  0  0
   -1.1545   -0.2913    5.2649 H   0  0  0  0  0  0  0  0  0  0  0  0
    0.4448   -0.5060    4.4645 H   0  0  0  0  0  0  0  0  0  0  0  0
   -0.6166    1.7400    3.8231 H   0  0  0  0  0  0  0  0  0  0  0  0
   -1.9811    0.8404    3.1368 H   0  0  0  0  0  0  0  0  0  0  0  0
   -0.7499    2.2841    1.1198 H   0  0  0  0  0  0  0  0  0  0  0  0
   -1.0807    0.1258   -1.1047 H   0  0  0  0  0  0  0  0  0  0  0  0
    0.5089   -0.6910   -4.3545 H   0  0  0  0  0  0  0  0  0  0  0  0
   -2.9883   -3.7167   -2.3036 H   0  0  0  0  0  0  0  0  0  0  0  0
   -4.8836   -2.3258   -3.0098 H   0  0  0  0  0  0  0  0  0  0  0  0
   -4.1692    2.2009   -4.9794 H   0  0  0  0  0  0  0  0  0  0  0  0
   -3.7079    0.6775   -5.9252 H   0  0  0  0  0  0  0  0  0  0  0  0
    2.4561    0.4644   -3.4887 H   0  0  0  0  0  0  0  0  0  0  0  0
    3.5361    1.6996   -1.6722 H   0  0  0  0  0  0  0  0  0  0  0  0
  1  2  1  0
  2  3  1  0
  3  4  2  0
  3  5  1  0
  5  6  1  0
  6  7  2  0
  7  8  1  0
  8  9  1  0
  9 10  1  0
 10 11  2  0
 11 12  1  0
 11 13  1  0
 13 14  2  0
 14 15  1  0
 15 16  2  0
 16 17  1  0
 17 18  1  0
 18 19  1  0
  8 20  2  0
 20 21  1  0
 21 22  2  0
 22  6  1  0
 16 10  1  0
 19 15  1  0
  1 23  1  0
  1 24  1  0
  1 25  1  0
  2 26  1  0
  2 27  1  0
  5 28  1  0
  7 29  1  0
  9 30  1  0
 13 31  1  0
 14 32  1  0
 18 33  1  0
 18 34  1  0
 20 35  1  0
 21 36  1  0
M  END
