
     RDKit          3D

 40 43  0  0  0  0  0  0  0  0999 V2000
    0.6856   -0.5604    1.7710 O   0  0  0  0  0  0  0  0  0  0  0  0
   -0.0191    0.4600    1.9827 C   0  0  0  0  0  0  0  0  0  0  0  0
   -0.1241    1.4106    0.9339 N   0  0  0  0  0  0  0  0  0  0  0  0
    0.5713    1.1527   -0.2878 C   0  0  0  0  0  0  0  0  0  0  0  0
   -0.0605    0.4577   -1.2855 C   0  0  0  0  0  0  0  0  0  0  0  0
    0.6223    0.2057   -2.4821 C   0  0  0  0  0  0  0  0  0  0  0  0
   -0.0137   -0.5117   -3.5266 N   0  0  0  0  0  0  0  0  0  0  0  0
   -1.3344   -0.9654   -3.3458 C   0  0  0  0  0  0  0  0  0  0  0  0
   -1.5235   -2.2130   -2.8046 C   0  0  0  0  0  0  0  0  0  0  0  0
   -0.1692   -3.2295   -2.3442 Cl  0  0  0  0  0  0  0  0  0  0  0  0
   -2.8041   -2.6674   -2.6230 C   0  0  0  0  0  0  0  0  0  0  0  0
   -3.8724   -1.8600   -2.9886 C   0  0  0  0  0  0  0  0  0  0  0  0
   -3.6789   -0.6046   -3.5332 C   0  0  0  0  0  0  0  0  0  0  0  0
   -2.3936   -0.1408   -3.7188 C   0  0  0  0  0  0  0  0  0  0  0  0
   -2.4698    1.1287   -4.2730 O   0  0  0  0  0  0  0  0  0  0  0  0
   -3.7794    1.3120   -4.7775 C   0  0  0  0  0  0  0  0  0  0  0  0
   -4.5233    0.4090   -3.9857 O   0  0  0  0  0  0  0  0  0  0  0  0
    1.9195    0.6589   -2.6420 C   0  0  0  0  0  0  0  0  0  0  0  0
    2.4946    1.3466   -1.6092 C   0  0  0  0  0  0  0  0  0  0  0  0
    1.8415    1.5798   -0.4824 N   0  0  0  0  0  0  0  0  0  0  0  0
   -0.7245    0.6643    3.2997 C   0  0  0  0  0  0  0  0  0  0  0  0
   -0.4411   -0.4846    4.2133 C   0  0  0  0  0  0  0  0  0  0  0  0
    0.3747    0.3898    5.1116 C   0  0  0  0  0  0  0  0  0  0  0  0
    0.0349    1.5681    4.2340 C   0  0  0  0  0  0  0  0  0  0  0  0
   -0.6935    2.2788    1.0458 H   0  0  0  0  0  0  0  0  0  0  0  0
   -1.0743    0.1043   -1.1584 H   0  0  0  0  0  0  0  0  0  0  0  0
    0.5236   -0.6802   -4.4008 H   0  0  0  0  0  0  0  0  0  0  0  0
   -2.9461   -3.6450   -2.1988 H   0  0  0  0  0  0  0  0  0  0  0  0
   -4.8843   -2.2151   -2.8468 H   0  0  0  0  0  0  0  0  0  0  0  0
   -4.1264    2.3612   -4.6547 H   0  0  0  0  0  0  0  0  0  0  0  0
   -3.8219    0.9769   -5.8383 H   0  0  0  0  0  0  0  0  0  0  0  0
    2.4537    0.4598   -3.5828 H   0  0  0  0  0  0  0  0  0  0  0  0
    3.5108    1.6981   -1.7425 H   0  0  0  0  0  0  0  0  0  0  0  0
   -1.7784    0.9630    3.2012 H   0  0  0  0  0  0  0  0  0  0  0  0
    0.1333   -1.3280    3.7453 H   0  0  0  0  0  0  0  0  0  0  0  0
   -1.3608   -0.8748    4.6903 H   0  0  0  0  0  0  0  0  0  0  0  0
    1.4715    0.1837    5.0837 H   0  0  0  0  0  0  0  0  0  0  0  0
    0.0299    0.4701    6.1563 H   0  0  0  0  0  0  0  0  0  0  0  0
    0.9092    2.0863    3.8010 H   0  0  0  0  0  0  0  0  0  0  0  0
   -0.5973    2.2832    4.8071 H   0  0  0  0  0  0  0  0  0  0  0  0
  1  2  2  0
  2  3  1  0
  3  4  1  0
  4  5  2  0
  5  6  1  0
  6  7  1  0
  7  8  1  0
  8  9  2  0
  9 10  1  0
  9 11  1  0
 11 12  2  0
 12 13  1  0
 13 14  2  0
 14 15  1  0
 15 16  1  0
 16 17  1  0
  6 18  2  0
 18 19  1  0
 19 20  2  0
  2 21  1  0
 21 22  1  0
 22 23  1  0
 23 24  1  0
 20  4  1  0
 24 21  1  0
 14  8  1  0
 17 13  1  0
  3 25  1  0
  5 26  1  0
  7 27  1  0
 11 28  1  0
 12 29  1  0
 16 30  1  0
 16 31  1  0
 18 32  1  0
 19 33  1  0
 21 34  1  0
 22 35  1  0
 22 36  1  0
 23 37  1  0
 23 38  1  0
 24 39  1  0
 24 40  1  0
M  END
